10
  -4.54282 frame 0   xyz file generated by terachem
   H       0.0000000000    0.0000000000    0.0000000000
   H       1.4000000000    0.0000000000    0.0000000000
   H       2.8000000000    0.0000000000    0.0000000000
   H       4.2000000000    0.0000000000    0.0000000000
   H       5.6000000000    0.0000000000    0.0000000000
   H       7.0000000000    0.0000000000    0.0000000000
   H       8.4000000000    0.0000000000    0.0000000000
   H       9.8000000000    0.0000000000    0.0000000000
   H      11.2000000000    0.0000000000    0.0000000000
   H      12.6000000000    0.0000000000    0.0000000000
